grid_simulations/tests/Result_no_control/output_voltage_peak.csv
# Result_no_control/output_voltage_peak.csv run at 2000-01-01 18:03:00 EST on 963 nodes
node_name,voltA_mag,voltA_angle,voltB_mag,voltB_angle,voltC_mag,voltC_angle
SourceBus,6668.395609,0.000000,6668.395609,4.188790,6668.395609,2.094395
Bus1,247.713138,-0.565392,247.254267,3.629679,248.953381,1.543542
Bus2,247.165501,-0.564815,246.779055,3.629576,248.756737,1.543742
Bus3,247.108094,-0.564754,246.729236,3.629565,248.736122,1.543763
Bus4,247.054313,-0.564697,246.682563,3.629555,248.716810,1.543783
Bus5,247.007425,-0.564648,246.641871,3.629546,248.699972,1.543800
Bus6,246.933558,-0.564570,246.577765,3.629532,248.673446,1.543827
Bus7,241.907205,-0.559136,242.212569,3.628569,246.867573,1.545681
Bus8,241.682253,-0.558887,242.017064,3.628525,246.786711,1.545764
Bus9,241.495033,-0.558680,241.854342,3.628489,246.719409,1.545834
Bus10,241.330740,-0.558498,241.711540,3.628456,246.660347,1.545895
Bus11,241.208153,-0.558362,241.604983,3.628432,246.616277,1.545941
Bus12,241.093077,-0.558234,241.504953,3.628410,246.574906,1.545984
Bus13,241.022318,-0.558155,241.443443,3.628396,246.549467,1.546010
Bus14,240.846166,-0.557959,241.290313,3.628361,246.486135,1.546076
Bus15,239.419531,-0.556359,240.049835,3.628079,245.973137,1.546609
Bus16,239.419531,-0.556359,240.049835,3.628079,245.973137,1.546609
Bus17,237.690326,-0.554394,238.545569,3.627733,245.351133,1.547259
Bus18,239.419531,-0.556359,240.049835,3.628079,245.973137,1.546609
Bus19,237.571380,-0.554257,238.442067,3.627709,245.308340,1.547303
Bus20,239.419531,-0.556359,240.049835,3.628079,245.973137,1.546609
Bus21,237.437823,-0.554104,238.325847,3.627682,245.260288,1.547354
Bus22,239.419531,-0.556359,240.049835,3.628079,245.973137,1.546609
Bus23,237.220377,-0.553854,238.136618,3.627638,245.182051,1.547436
Bus24,239.419531,-0.556359,240.049835,3.628079,245.973137,1.546609
Bus25,236.824828,-0.553399,237.792365,3.627558,245.039723,1.547585
Bus26,239.419531,-0.556359,240.049835,3.628079,245.973137,1.546609
Bus27,236.284938,-0.552836,237.794053,3.627525,245.045658,1.547607
Bus28,232.499510,-0.548185,233.414978,3.627716,243.046290,1.548692
Bus29,239.419531,-0.556359,240.049835,3.628079,245.973137,1.546609
Bus30,236.210599,-0.552758,237.794285,3.627521,245.046475,1.547610
Bus31,236.212488,-0.552760,237.794280,3.627521,245.046454,1.547610
Bus32,231.349132,-0.546765,232.249649,3.627759,242.515657,1.548989
Bus33,239.419531,-0.556359,240.049835,3.628079,245.973137,1.546609
Bus34,236.040361,-0.552580,237.794818,3.627511,245.048347,1.547616
Bus35,236.210035,-0.552758,237.794287,3.627521,245.046481,1.547610
Bus36,231.355041,-0.546742,231.715690,3.628327,242.517146,1.548958
Bus37,227.699318,-0.543058,229.241498,3.627382,240.864814,1.550843
Bus38,239.419531,-0.556359,240.049835,3.628079,245.973137,1.546609
Bus39,236.206507,-0.552754,237.794298,3.627521,245.046520,1.547610
Bus40,231.355247,-0.546742,231.697041,3.628347,242.517198,1.548956
Bus41,231.355973,-0.546739,231.631487,3.628416,242.517381,1.548953
Bus42,225.168480,-0.540414,227.154061,3.627114,239.719731,1.552144
Bus43,227.699318,-0.543058,229.241498,3.627382,240.864814,1.550843
Bus44,239.419531,-0.556359,240.049835,3.628079,245.973137,1.546609
Bus45,236.201983,-0.552749,237.794312,3.627520,245.046570,1.547610
Bus46,231.355341,-0.546741,231.688635,3.628355,242.517222,1.548956
Bus47,231.358215,-0.546731,231.428885,3.628633,242.517946,1.548941
Bus48,223.257099,-0.538377,225.576686,3.626909,238.854713,1.553136
Bus49,227.699318,-0.543058,229.241498,3.627382,240.864814,1.550843
Bus50,239.419531,-0.556359,240.049835,3.628079,245.973137,1.546609
Bus51,236.190965,-0.552738,237.794347,3.627520,245.046691,1.547610
Bus52,231.355439,-0.546741,231.679726,3.628365,242.517247,1.548955
Bus53,222.981593,-0.538081,225.349261,3.626879,238.730014,1.553280
Bus54,223.257099,-0.538377,225.576686,3.626909,238.854713,1.553136
Bus55,227.699318,-0.543058,229.241498,3.627382,240.864814,1.550843
Bus56,239.419531,-0.556359,240.049835,3.628079,245.973137,1.546609
Bus57,236.181532,-0.552728,237.794376,3.627519,245.046795,1.547611
Bus58,231.355533,-0.546741,231.671241,3.628374,242.517270,1.548955
Bus59,221.733874,-0.536728,224.319088,3.626743,238.165224,1.553932
Bus60,223.257099,-0.538377,225.576686,3.626909,238.854713,1.553136
Bus61,227.699318,-0.543058,229.241498,3.627382,240.864814,1.550843
Bus62,239.419531,-0.556359,240.049835,3.628079,245.973137,1.546609
Bus63,236.136312,-0.552681,237.794518,3.627516,245.047292,1.547613
Bus64,231.355589,-0.546740,231.666160,3.628379,242.517284,1.548955
Bus65,221.517894,-0.536490,224.105561,3.626789,238.037947,1.554016
Bus66,220.926524,-0.535829,224.321817,3.626691,238.174015,1.553965
Bus67,223.257099,-0.538377,225.576686,3.626909,238.854713,1.553136
Bus68,227.699318,-0.543058,229.241498,3.627382,240.864814,1.550843
Bus69,239.419531,-0.556359,240.049835,3.628079,245.973137,1.546609
Bus70,235.976479,-0.552513,237.795018,3.627507,245.049049,1.547619
Bus71,231.355700,-0.546740,231.656190,3.628390,242.517312,1.548954
Bus72,218.967137,-0.533638,221.582848,3.627335,236.534356,1.555023
Bus73,220.729237,-0.535608,224.322485,3.626679,238.176163,1.553973
Bus74,220.729237,-0.535608,224.322485,3.626679,238.176163,1.553973
Bus75,223.257099,-0.538377,225.576686,3.626909,238.854713,1.553136
Bus76,227.699318,-0.543058,229.241498,3.627382,240.864814,1.550843
Bus77,239.419531,-0.556359,240.049835,3.628079,245.973137,1.546609
Bus78,231.356259,-0.546738,231.605665,3.628444,242.517453,1.548951
Bus79,218.078433,-0.532629,220.703511,3.627528,236.010300,1.555376
Bus80,223.257099,-0.538377,225.576686,3.626909,238.854713,1.553136
Bus81,227.699318,-0.543058,229.241498,3.627382,240.864814,1.550843
Bus82,239.419531,-0.556359,240.049835,3.628079,245.973137,1.546609
Bus83,231.358366,-0.546730,231.415279,3.628647,242.517984,1.548940
Bus84,217.884518,-0.532408,220.511612,3.627571,235.895937,1.555454
Bus85,223.257099,-0.538377,225.576686,3.626909,238.854713,1.553136
Bus86,227.699318,-0.543058,229.241498,3.627382,240.864814,1.550843
Bus87,239.419531,-0.556359,240.049835,3.628079,245.973137,1.546609
Bus88,217.491323,-0.531957,220.122472,3.627657,235.664033,1.555611
Bus89,223.257099,-0.538377,225.576686,3.626909,238.854713,1.553136
Bus90,227.699318,-0.543058,229.241498,3.627382,240.864814,1.550843
Bus91,239.419531,-0.556359,240.049835,3.628079,245.973137,1.546609
Bus92,217.120562,-0.531531,219.755497,3.627738,235.445341,1.555760
Bus93,227.699318,-0.543058,229.241498,3.627382,240.864814,1.550843
Bus94,239.419531,-0.556359,240.049835,3.628079,245.973137,1.546609
Bus95,216.905080,-0.531283,219.542198,3.627786,235.318232,1.555846
Bus96,227.699318,-0.543058,229.241498,3.627382,240.864814,1.550843
Bus97,239.419531,-0.556359,240.049835,3.628079,245.973137,1.546609
Bus98,216.762778,-0.531119,219.401330,3.627817,235.234287,1.555903
Bus99,227.699318,-0.543058,229.241498,3.627382,240.864814,1.550843
Bus100,239.419531,-0.556359,240.049835,3.628079,245.973137,1.546609
Bus101,216.566307,-0.530892,219.206831,3.627861,235.118383,1.555982
Bus102,227.699318,-0.543058,229.241498,3.627382,240.864814,1.550843
Bus103,239.419531,-0.556359,240.049835,3.628079,245.973137,1.546609
Bus104,216.566598,-0.530892,219.201580,3.627860,235.115507,1.555972
Bus105,216.434382,-0.530757,219.104647,3.627847,235.056409,1.556064
Bus106,227.699318,-0.543058,229.241498,3.627382,240.864814,1.550843
Bus107,216.566949,-0.530892,219.195227,3.627859,235.112028,1.555959
Bus108,216.359576,-0.530680,219.046704,3.627839,235.021267,1.556110
Bus109,227.699318,-0.543058,229.241498,3.627382,240.864814,1.550843
Bus110,216.567356,-0.530891,219.187864,3.627857,235.107995,1.555944
Bus111,213.408944,-0.527620,216.760442,3.627515,233.635069,1.557940
Bus112,227.699318,-0.543058,229.241498,3.627382,240.864814,1.550843
Bus113,216.567977,-0.530891,219.176638,3.627855,235.101847,1.555921
Bus114,213.113467,-0.527309,216.531409,3.627483,233.496245,1.558125
Bus115,227.699318,-0.543058,229.241498,3.627382,240.864814,1.550843
Bus116,216.568775,-0.530891,219.162204,3.627852,235.093942,1.555892
Bus117,213.111781,-0.527321,216.519806,3.627482,233.484337,1.558099
Bus118,212.214799,-0.526704,215.927462,3.626863,233.179839,1.558540
Bus119,227.699318,-0.543058,229.241498,3.627382,240.864814,1.550843
Bus120,216.569348,-0.530891,219.151843,3.627850,235.088267,1.555871
Bus121,213.111781,-0.527321,216.519806,3.627482,233.484337,1.558099
Bus122,213.110960,-0.527326,216.514157,3.627481,233.478540,1.558086
Bus123,210.594368,-0.525600,214.838533,3.625737,232.609344,1.559291
Bus124,227.699318,-0.543058,229.241498,3.627382,240.864814,1.550843
Bus125,216.570158,-0.530891,219.137201,3.627847,235.080249,1.555841
Bus126,213.111781,-0.527321,216.519806,3.627482,233.484337,1.558099
Bus127,213.107103,-0.527353,216.487618,3.627479,233.451304,1.558027
Bus128,209.865745,-0.525098,214.348931,3.625227,232.352836,1.559630
Bus129,227.699318,-0.543058,229.241498,3.627382,240.864814,1.550843
Bus130,216.571034,-0.530891,219.121361,3.627843,235.071574,1.555809
Bus131,213.111781,-0.527321,216.519806,3.627482,233.484337,1.558099
Bus132,212.912971,-0.527128,216.488297,3.627466,233.453408,1.558035
Bus133,213.153726,-0.527406,216.405531,3.627582,233.356431,1.557785
Bus134,209.648970,-0.524947,214.203272,3.625075,232.276523,1.559731
Bus135,227.699318,-0.543058,229.241498,3.627382,240.864814,1.550843
Bus136,216.571860,-0.530891,219.106422,3.627840,235.063394,1.555778
Bus137,213.111781,-0.527321,216.519806,3.627482,233.484337,1.558099
Bus138,212.896253,-0.527109,216.488355,3.627465,233.453589,1.558036
Bus139,213.188412,-0.527445,216.344465,3.627659,233.285859,1.557605
Bus140,209.404280,-0.524778,214.038858,3.624903,232.190383,1.559845
Bus141,227.699318,-0.543058,229.241498,3.627382,240.864814,1.550843
Bus142,216.573219,-0.530891,219.081860,3.627835,235.049944,1.555729
Bus143,213.111781,-0.527321,216.519806,3.627482,233.484337,1.558099
Bus144,212.879850,-0.527090,216.488413,3.627464,233.453767,1.558037
Bus145,213.211640,-0.527472,216.303571,3.627711,233.238603,1.557485
Bus146,209.174158,-0.524618,213.884235,3.624740,232.109373,1.559953
Bus147,227.699318,-0.543058,229.241498,3.627382,240.864814,1.550843
Bus148,216.579677,-0.530890,218.965073,3.627811,234.986000,1.555491
Bus149,213.111781,-0.527321,216.519806,3.627482,233.484337,1.558099
Bus150,212.866605,-0.527075,216.488459,3.627463,233.453911,1.558037
Bus151,213.216863,-0.527574,216.319345,3.627785,233.186118,1.557465
Bus152,213.217433,-0.527449,215.788192,3.628297,233.239983,1.557453
Bus153,208.905657,-0.524430,213.703827,3.624551,232.014854,1.560078
Bus154,227.699318,-0.543058,229.241498,3.627382,240.864814,1.550843
Bus155,216.581084,-0.530890,218.939632,3.627806,234.972072,1.555440
Bus156,213.111781,-0.527321,216.519806,3.627482,233.484337,1.558099
Bus157,212.846725,-0.527052,216.488529,3.627462,233.454126,1.558038
Bus158,213.230728,-0.527846,216.361183,3.627981,233.046925,1.557414
Bus159,213.217786,-0.527447,215.756825,3.628333,233.240067,1.557451
Bus160,208.828399,-0.524377,213.651917,3.624497,231.987657,1.560114
Bus161,227.699318,-0.543058,229.241498,3.627382,240.864814,1.550843
Bus162,216.587602,-0.530865,218.358528,3.628460,234.973641,1.555404
Bus163,216.573334,-0.530944,218.884699,3.627802,234.915512,1.555317
Bus164,213.111781,-0.527321,216.519806,3.627482,233.484337,1.558099
Bus165,212.822758,-0.527024,216.488613,3.627460,233.454386,1.558039
Bus166,213.235547,-0.527940,216.375718,3.628049,232.998576,1.557397
Bus167,213.218108,-0.527446,215.728170,3.628365,233.240143,1.557449
Bus168,208.389493,-0.524069,213.357019,3.624186,231.833153,1.560319
Bus169,227.699318,-0.543058,229.241498,3.627382,240.864814,1.550843
Bus170,216.588833,-0.530860,218.248758,3.628584,234.973937,1.555397
Bus171,216.563045,-0.531016,218.811769,3.627796,234.840429,1.555155
Bus172,213.111781,-0.527321,216.519806,3.627482,233.484337,1.558099
Bus173,212.804651,-0.527003,216.488676,3.627459,233.454582,1.558040
Bus174,213.235547,-0.527940,216.375718,3.628049,232.998576,1.557397
Bus175,213.236678,-0.527966,216.379902,3.628067,232.607104,1.557810
Bus176,213.218242,-0.527446,215.716266,3.628379,233.240175,1.557448
Bus177,208.141605,-0.523895,213.190468,3.624010,231.745892,1.560436
Bus178,216.591373,-0.530850,218.022292,3.628841,234.974549,1.555383
Bus179,216.559584,-0.530995,218.794288,3.627772,234.845033,1.555134
Bus180,216.563696,-0.531031,218.814167,3.627807,234.616364,1.555389
Bus181,213.111781,-0.527321,216.519806,3.627482,233.484337,1.558099
Bus182,212.783699,-0.526979,216.488749,3.627458,233.454809,1.558041
Bus183,213.235547,-0.527940,216.375718,3.628049,232.998576,1.557397
Bus184,213.236801,-0.527969,216.380354,3.628069,232.564827,1.557855
Bus185,213.218531,-0.527444,215.690608,3.628408,233.240244,1.557447
Bus186,207.957595,-0.523766,213.066837,3.623880,231.681118,1.560522
Bus187,216.545964,-0.530913,218.725499,3.627674,234.863155,1.555051
Bus188,216.566391,-0.531093,218.824093,3.627849,233.689143,1.556364
Bus189,213.111781,-0.527321,216.519806,3.627482,233.484337,1.558099
Bus190,212.763999,-0.526956,216.488818,3.627457,233.455023,1.558042
Bus191,213.235547,-0.527940,216.375718,3.628049,232.998576,1.557397
Bus192,213.235547,-0.527940,216.375718,3.628049,232.998576,1.557397
Bus193,213.236919,-0.527972,216.380791,3.628071,232.523934,1.557898
Bus194,213.219265,-0.527442,215.625258,3.628483,233.240419,1.557443
Bus195,207.792165,-0.523649,212.955690,3.623762,231.622885,1.560599
Bus196,216.521651,-0.530765,218.602683,3.627499,234.895514,1.554903
Bus197,216.566655,-0.531099,218.825063,3.627853,233.598557,1.556460
Bus198,216.566544,-0.531096,218.824654,3.627852,233.636774,1.556420
Bus199,213.111781,-0.527321,216.519806,3.627482,233.484337,1.558099
Bus200,212.742802,-0.526931,216.488893,3.627455,233.455253,1.558043
...
SourceBus_1,6625.212398,-0.009345,6630.662082,4.181860,6641.794654,2.085547
LOAD1,236.040361,-0.552580,237.794818,3.627511,245.048347,1.547616
LOAD2,231.358215,-0.546731,231.428885,3.628633,242.517946,1.548941
LOAD3,235.976479,-0.552513,237.795018,3.627507,245.049049,1.547619
LOAD4,220.729237,-0.535608,224.322485,3.626679,238.176163,1.553973
LOAD5,220.729237,-0.535608,224.322485,3.626679,238.176163,1.553973
LOAD6,231.358366,-0.546730,231.415279,3.628647,242.517984,1.548940
LOAD7,216.591373,-0.530850,218.022292,3.628841,234.974549,1.555383
LOAD8,216.567320,-0.531114,218.827515,3.627864,233.369543,1.556702
LOAD9,215.597901,-0.529711,218.605874,3.627439,234.905527,1.554942
LOAD10,216.576464,-0.530541,216.867552,3.629285,234.910872,1.554598
LOAD11,216.576464,-0.530541,216.867552,3.629285,234.910872,1.554598
LOAD12,216.567499,-0.531118,218.828171,3.627867,233.308211,1.556767
LOAD13,213.228156,-0.527407,214.834544,3.629389,233.242537,1.557394
LOAD14,212.378266,-0.526508,216.490169,3.627431,233.459204,1.558058
LOAD15,213.226979,-0.527411,214.939237,3.629269,233.242256,1.557400
LOAD16,213.239306,-0.528028,216.389615,3.628109,231.698322,1.558776
LOAD17,213.238794,-0.528016,216.387727,3.628101,231.875007,1.558588
LOAD18,200.777563,-0.514949,208.384906,3.617252,230.107700,1.564455
LOAD19,205.282765,-0.521915,211.201602,3.622124,229.972098,1.562451
LOAD20,201.220650,-0.516536,209.524623,3.618704,230.610558,1.563351
LOAD21,205.423498,-0.521593,211.879587,3.622563,231.065876,1.561387
LOAD22,201.041883,-0.516317,209.525298,3.618692,230.612486,1.563358
LOAD23,199.797531,-0.512484,206.769651,3.616874,231.000919,1.563861
LOAD24,203.511474,-0.520656,209.493642,3.621718,228.605148,1.563036
LOAD25,190.565029,-0.494880,203.449725,3.604357,232.937631,1.567668
LOAD26,200.343391,-0.515329,204.467969,3.621347,228.179818,1.560162
LOAD27,202.839818,-0.520075,208.598294,3.621887,227.777146,1.563128
LOAD28,202.840388,-0.520089,208.600411,3.621896,227.577002,1.563345
LOAD29,189.914187,-0.491804,201.907843,3.604487,232.963188,1.566387
LOAD30,190.629134,-0.494963,203.449451,3.604362,232.936950,1.567665
LOAD31,189.930032,-0.491825,201.907775,3.604488,232.963020,1.566387
LOAD32,199.504552,-0.514443,204.273664,3.620130,227.233031,1.561032
LOAD33,192.209758,-0.492928,200.314857,3.607770,231.709507,1.564256
LOAD34,192.807721,-0.499485,204.598176,3.606623,232.552088,1.567216
LOAD35,192.349834,-0.492251,198.963126,3.609347,232.433167,1.562753
LOAD36,192.104756,-0.492589,198.730567,3.609178,232.630369,1.563719
LOAD37,192.105189,-0.492587,198.693680,3.609223,232.630454,1.563717
LOAD38,198.482675,-0.512910,202.663911,3.619928,227.752729,1.560416
LOAD39,197.684512,-0.512050,202.430486,3.618925,226.210844,1.561443
LOAD40,197.144377,-0.510237,200.613911,3.619380,227.296537,1.559477
LOAD41,195.853028,-0.505150,196.685088,3.621459,226.801866,1.557233
LOAD42,197.684628,-0.512054,202.430941,3.618927,226.167826,1.561490
LOAD43,195.036187,-0.504454,197.488666,3.619959,224.787860,1.559270
LOAD44,200.043781,-0.514890,203.859261,3.621499,228.077198,1.560104
LOAD45,195.852381,-0.505153,196.741219,3.621389,226.801722,1.557236
LOAD46,195.084351,-0.508784,203.213722,3.618455,227.734753,1.560768
LOAD47,195.036005,-0.504449,197.487917,3.619956,224.858540,1.559193
LOAD48,195.215659,-0.508950,203.213212,3.618464,227.733349,1.560762
LOAD49,194.955961,-0.508622,203.214221,3.618446,227.736125,1.560774
LOAD50,194.409366,-0.498566,193.240143,3.621704,226.913989,1.554636
LOAD51,194.533982,-0.505748,200.244197,3.617607,227.271485,1.559388
LOAD52,192.375254,-0.498266,196.103521,3.618210,226.812546,1.556897
LOAD53,194.409366,-0.498566,193.129977,3.621850,226.913989,1.554636
LOAD54,194.176126,-0.505294,200.245608,3.617582,227.275292,1.559404
LOAD55,192.339418,-0.498140,196.110401,3.618087,226.830535,1.556974
